/*--------------------------------*- C++ -*----------------------------------*\
| =========                 |                                                 |
| \\      /  F ield         | OpenFOAM: The Open Source CFD Toolbox           |
|  \\    /   O peration     | Version:  5.0                                   |
|   \\  /    A nd           | Web:      www.OpenFOAM.org                      |
|    \\/     M anipulation  |                                                 |
\*---------------------------------------------------------------------------*/
FoamFile
{
    version     2.0;
    format      ascii;
    class       polyBoundaryMesh;
    location    "constant/polyMesh";
    object      boundary;
}
// * * * * * * * * * * * * * * * * * * * * * * * * * * * * * * * * * * * * * //

7
(
    leftWall
    {
        type            wall;
        inGroups        1(wall);
        nFaces          0;
        startFace       3731;
    }
    rightWall
    {
        type            wall;
        inGroups        1(wall);
        nFaces          43;
        startFace       3731;
    }
    lowerWall
    {
        type            wall;
        inGroups        1(wall);
        nFaces          66;
        startFace       3774;
    }
    atmosphere
    {
        type            patch;
        nFaces          0;
        startFace       3840;
    }
    defaultFaces
    {
        type            empty;
        inGroups        1(empty);
        nFaces          3830;
        startFace       3840;
    }
    procBoundary1to0
    {
        type            processor;
        inGroups        1(processor);
        nFaces          44;
        startFace       7670;
        matchTolerance  0.0001;
        transform       unknown;
        myProcNo        1;
        neighbProcNo    0;
    }
    procBoundary1to3
    {
        type            processor;
        inGroups        1(processor);
        nFaces          45;
        startFace       7714;
        matchTolerance  0.0001;
        transform       unknown;
        myProcNo        1;
        neighbProcNo    3;
    }
)

// ************************************************************************* //
